6
reference_type=interaction_energy reference_unit=kcalmol reference_value=-5.011 charge=0 charge_a=0 charge_b=0 selection_a=1-3 selection_b=4-6
  O   -0.702196054  -0.056060256   0.009942262
  H   -1.022193224   0.846775782  -0.011488714
  H    0.257521062   0.042121496   0.005218999
  O    2.220871067   0.026716792   0.000620476
  H    2.597492682  -0.411663274   0.766744858
  H    2.593135384  -0.449496183  -0.744782026
