10
Coordinates from ORCA-job opt E -74.924034565177
  Li          1.35039521050325      1.09244501063450      3.06955022194887
  Li          1.63988296491523      0.96371553030192     -1.66217662907333
  Li          0.35603652525554      0.72944173829368      0.74576806840690
  Li          0.93188957821901      3.28750505856144      0.12493066662404
  Li          3.20570404383553      1.65553635348718      0.64019449310359
  Li          3.55880115230848      3.37055549833189     -1.93204203701458
  Li         -1.28466328823452      2.28583312694502      2.08368844094949
  Li         -1.55353677092680      1.06681804205338     -0.89661650131652
  Li          1.84592181421239     -1.29095567066818      0.90600394225008
  Li         -1.27543123008814     -0.87589468794085      2.18569933412143
