12
Coordinates from ORCA-job opt E -89.928023135927
  Li          2.14074081070610      2.47274486952919      1.46092074741285
  Li          2.27531254424870      1.57220192315295     -1.42213174153217
  Li          0.48804973765481      0.30150845100794      0.38687432297933
  Li          0.12623910540823      3.34266412499602     -0.27963579046892
  Li          2.90358519642287     -0.72489893307530      0.66305303864315
  Li          2.57952117757002      4.75240286757376     -0.52632452376194
  Li         -0.79156813311025      2.16181172791213      2.21324594626033
  Li         -0.74697465825264      0.86524852121559     -1.89530263675700
  Li          0.10623788576745     -2.31405454345285      1.15225842340586
  Li          1.15977840000516     -0.06812365221575      3.04467529481038
  Li          1.33553524374506     -1.51838131445870     -1.70726939255133
  Li          0.70854268983446      4.95187595781498      2.17463631155945
