14
Coordinates from ORCA-job opt E -104.934967158928
  Li          1.65254439300431      1.59866434029313      2.23398297692244
  Li          2.31107915132284      1.79105737611238     -2.19226897409299
  Li          0.72197821671441      0.65112019426113     -0.18113339387610
  Li          0.05374935902254      3.29595123895820      0.26461256999650
  Li          3.21830007285171     -0.08873608772263      0.04420282173645
  Li          2.83115935784316      3.25956011724296      0.18217966004740
  Li         -1.06223819185002      1.01388195324735      1.93532735271105
  Li         -0.59774736451381      1.63891839434034     -2.33423833311709
  Li          0.74084321341712     -1.46802797845401      1.61413530733027
  Li          0.33512173488842      0.22481942063869      4.44791755730726
  Li          1.13546200723931     -1.21112175383641     -2.10345880385962
  Li          1.40027521799310      5.56830595034988      1.40426711860651
  Li          0.00409953769491      3.44670062568373      3.49282178248964
  Li          1.29537329437198      4.84890620888516     -1.78834764220172
