18
Coordinates from ORCA-job opt E -134.969219117017
  Li          1.72810537112191      1.44187976533590      1.59456971165318
  Li          2.15084521546137      0.81384011662339     -1.80902456525777
  Li         -0.34574504487478      0.05299176793110     -0.13897183401301
  Li          0.76425015199299      2.74894701502438     -0.51052014226798
  Li          3.92308237066726      0.17657101965703      0.25877652902979
  Li          3.23365981837188      3.64443516210181     -0.84839336744174
  Li         -0.96710859987832      2.89915205343076      1.65414854275248
  Li         -1.65020936729662      2.68353427811042     -1.52834356575251
  Li          1.65751466639690     -1.47572296815142      1.24048236971560
  Li         -0.20381407571258      0.10742744363460      3.02452563721519
  Li          1.74884135219938     -1.97405725741895     -1.68375929164821
  Li          1.60954115765748      4.56125071449387      1.55632652444192
  Li          1.25898046615928      2.67051602612553      4.00032141691758
  Li          0.17038452916756      5.28963357244394     -0.99548123647255
  Li         -0.35891885774709      0.13934593967719     -2.99803384003035
  Li          1.02803754753294      3.15193483559700     -3.21527357126221
  Li          4.02132131121076      2.80777774999949      2.14833123254728
  Li          3.04623198756961      0.09554276538389      3.51531944987328
