20
Coordinates from ORCA-job opt E -149.981871537602
  Li          1.00546069971357      1.75214091596154      1.61857946554348
  Li          1.36756109416467      1.75265058475103     -1.28717753088410
  Li          0.05049813517450     -0.40175067730163      0.08940317418909
  Li          0.05427448682816      3.91054031364051      0.09058211421562
  Li          3.15970700113484      0.38311331702029      0.45966654747603
  Li          3.15539636672325      3.12634716539423      0.45906857031988
  Li         -1.82061495245262      1.75466204930029      1.67047096367090
  Li         -1.48746950240213      1.75740737548113     -1.31249815897894
  Li          2.11234240824599     -2.04034675888144      1.48193812536007
  Li          0.03925302772431     -0.08951470722985      3.30609915793668
  Li          2.63817833833365     -1.18507438769242     -1.62618429465484
  Li          2.11460695777283      5.55266692274342      1.48223559570061
  Li          0.03933846149254      3.59920816570505      3.30279181523778
  Li          2.63998797173412      4.69708625090023     -1.62494412208851
  Li          0.32172867478972      0.14530616188901     -3.20300529873329
  Li          0.32836877518211      3.36186137345100     -3.20348563432420
  Li          5.51589998669084      1.75952792532638      1.12959095884750
  Li          3.16474815115667      0.30201472793441      3.12411526872622
  Li          3.16201362922200      3.20611663720882      3.12286244742298
  Li          4.02872028877092      1.75603664439793     -2.06010916498294
