22
Coordinates from ORCA-job opt E -164.971128748152
  Li          1.75759748005032      1.75419908815294      1.53141014120592
  Li          1.75793309972385      1.75484610109036     -1.53092192740083
  Li          0.12955521155135      0.12935225834244     -0.00163490354558
  Li          0.02173843625130      3.48872554224935     -0.00091341324553
  Li          3.49003814088849      0.02046694313513     -0.00038477808216
  Li          3.38141792974131      3.38098456715108     -0.00112235819064
  Li         -1.64782748513821      1.51807527039303      1.58666126340245
  Li         -1.65040411731495      1.52014496857935     -1.58682222131292
  Li          1.51758401940642     -1.64636280069860      1.58596290800731
  Li          0.58534104444029      0.58523731119005      3.66152658360624
  Li          1.51894533291972     -1.64885342066164     -1.58540692054909
  Li          1.99315654419941      5.15651994750822      1.58677887287205
  Li         -0.12060617899046      3.63105251648814      3.09592161136730
  Li          1.99123074673195      5.15880171865390     -1.58714092216408
  Li          0.58357890270931      0.58413084444836     -3.65923591163062
  Li         -0.12063494627755      3.63091814122752     -3.09637058771063
  Li          5.15508566627379      1.99355275908413      1.58563360916731
  Li          3.63154576039086     -0.12093499740443      3.09676874857878
  Li          2.92262740588844      2.92250211647753      3.66196559012918
  Li          5.15738986447992      1.99238551653581     -1.58517217831224
  Li          3.63066045595228     -0.12015346214941     -3.09624945432642
  Li          2.92404668612210      2.92440907020671     -3.66125375186582
