24
Coordinates from ORCA-job opt E -179.993430877962
  Li          1.33537882931190      1.49016710165314      2.30636596077789
  Li          1.44833464053933      1.28986039243473     -2.31202081988491
  Li          0.28261351928072      0.28687315949733      0.02378235836990
  Li          1.05744714753797      2.93200765005189     -0.11553168221358
  Li          2.92778585836413      1.05438230918361      0.08954324037424
  Li          3.72971433603890      3.72892607939852      0.02113836337860
  Li         -1.26452731147456      2.29960614154926      1.59323861552813
  Li         -1.32498735269083      1.79304029221672     -1.65725971552285
  Li          1.80928972938222     -1.32122859025123      1.65013027853998
  Li         -0.18850335060977      0.04030623406781      4.06491393516992
  Li          2.30102960004288     -1.27673946778708     -1.59749871327257
  Li          0.96863287106317      4.82632989301038      1.74541665613056
  Li          0.87021657577186      2.92337845524668      4.58893442540730
  Li          0.74166070137440      5.00043369664468     -1.62974532475848
  Li          0.02618963750254     -0.20137128313380     -4.12216469774953
  Li          0.58438196416957      2.88794671318419     -4.29411873241670
  Li          4.97697373004974      0.75766841004214      1.62958689356850
  Li          2.89625152454195      0.60467737912933      4.30344445480941
  Li          3.40045719543581      3.17848776340411      2.84573340662983
  Li          4.83915217545787      0.94822354821380     -1.73855362291954
  Li          2.91745441099282      0.85909829383692     -4.57909962715137
  Li          3.13867941141849      3.35881995102895     -2.78180601299098
  Li         -1.51310716952684     -0.89193288649406      1.47206086106984
  Li         -0.86051867397438     -1.46896123612812     -1.50649050087356
