32
Coordinates from ORCA-job opt E -240.020670161643
  Li          1.82689222792113      1.75558224268905      1.83060581443585
  Li          1.82869394586752      1.75583243441288     -1.83059667331960
  Li         -0.07191104739256     -0.07546729659568     -0.00058780462728
  Li         -0.07369852454820      3.58544660795118     -0.00083752452033
  Li          3.44874420385117     -0.08099074398576     -0.00028906653053
  Li          3.44728728126970      3.58913592233032     -0.00071879604345
  Li         -1.69371660743378      1.75528228477439      1.83618972080094
  Li         -1.69224918871882      1.75571260638730     -1.83431619130757
  Li          1.55198602612855     -1.76432142427471      1.69225712833776
  Li          0.20289319529467      0.06273185647154      3.51951024842198
  Li          1.55332017031167     -1.76570578336146     -1.69275223221454
  Li          1.55045295642834      5.27294805531270      1.69312509929434
  Li          0.20157003098850      3.44775829383222      3.52086950637683
  Li          1.55160210811755      5.27496358634920     -1.69419600302403
  Li          0.20444611271461      0.06184343997498     -3.51813730829748
  Li          0.20331030893142      3.44922283994319     -3.52012739567361
  Li          5.17151729581672      1.75443237907028      1.52862263726143
  Li          3.44777999435732     -0.05696143840675      3.22439758429715
  Li          3.44699619839049      3.56632058832914      3.22505939873991
  Li          5.17144176517940      1.75390933510617     -1.53114509990745
  Li          3.44762652446678     -0.05792588453319     -3.22539715122140
  Li          3.44748675409129      3.56702716342484     -3.22612334310591
  Li         -1.69273012655200     -1.46932870132678      1.81206910130185
  Li         -1.69194126435586     -1.47000614672586     -1.81141956035741
  Li         -1.69257532562027      4.98032393324602      1.81302440237990
  Li         -3.41635218427188      0.22629723407628      0.00057976871360
  Li         -1.69242889755090      4.98106305035745     -1.81211667258766
  Li         -3.41629166578809      3.28619440184477      0.00110269914948
  Li          1.98011128299285      1.75495316644184      5.13381544964882
  Li         -0.22520338926907     -3.37875923165781      0.00005602056126
  Li          1.98223265121494      1.75483284370463     -5.13269997189841
  Li         -0.22729281283322      6.88765238483758      0.00017621491554
