34
Coordinates from ORCA-job opt E -255.099597575922
  Li          1.45972771431901      2.08004238366315      1.81723063388285
  Li          1.91094630569068      1.76124301111358     -2.46668109791712
  Li          0.04836951097256      0.81619294392928     -0.68910092015643
  Li         -0.14324608124685      3.72814475252690     -0.00097286758830
  Li          2.99558886378638      0.40877848215097      0.01959299944974
  Li          2.82186945663420      3.52889917616497     -0.53755458503631
  Li         -1.53423658966086      1.45668751846417      1.71014064828525
  Li         -1.01344038648289      2.40741420946819     -2.92321867193618
  Li          0.66218243336363     -0.66293906950796      1.51923309236924
  Li          0.05391552310307      0.43178461228282      4.10504822084866
  Li          1.77670507073937     -1.36167964144896     -1.81235589100522
  Li          2.15109435546434      4.83951810228429      2.12043375875904
  Li         -0.43040944508572      3.69052619108868      3.39858576402985
  Li          1.66225648539989      6.21861501948078     -0.67086573921909
  Li         -0.05178054733558     -0.23850593766202     -3.58817367288831
  Li          0.93027021924354      4.50350629975495     -2.82841963721019
  Li          5.43998075323711     -0.33703686771538      1.06574012530878
  Li          2.96921640767197     -0.19682850186633      3.13688064661994
  Li          4.28672768482257      2.47298803557659      1.75239201908559
  Li          4.95801140535913      1.58218542587372     -1.56464766720121
  Li          3.47366987933115      0.27948175651769     -4.02464706451006
  Li          3.74024492654384      3.65861397591030     -3.49791228179173
  Li         -1.85080400812190     -1.43983183412700      2.16780867741419
  Li          0.03802482079249     -2.77032275930725      0.04698211799058
  Li         -2.86916825753063      4.18905401552436      1.54076735929582
  Li         -1.98138898133091     -0.69108151220671     -0.98348994418711
  Li         -1.77636992697320      5.41423354956672     -1.38522890992393
  Li         -2.75177969008082      2.29836402483594     -0.72622966089577
  Li          2.33667686532222      2.67779694653894      4.35248030562806
  Li          0.83742700654480     -2.67072173072710      3.31433483225193
  Li          1.36305296285598      2.29787677002765     -5.11878771195031
  Li         -0.54692770815238      6.12947277734118      1.46227788719734
  Li          2.99957675796556     -2.38511132740102      0.93917879512603
  Li          4.64401621283808     -1.46736079811635     -1.65082156012561
