36
Coordinates from ORCA-job opt E -270.126669382615
  Li          0.81342733813974      1.45074280566803      2.62822298488314
  Li          1.17217053513689      1.75343452958097     -2.15473047721124
  Li          1.17242451623923     -0.26611336403087      0.29786419485179
  Li         -0.86414813068832      1.90135357580820     -0.06860950561002
  Li          3.90685538837749      0.05913558453551     -0.70079915266294
  Li          2.51875794100125      2.24203869242287      0.29050603880161
  Li         -2.00290547527031      2.26327792317730      2.41204315945098
  Li         -2.14383433696611      1.85894656221260     -2.65208561153523
  Li          1.31815253820159     -1.45463094722241      3.18827073753174
  Li         -0.78972034034611      0.61687269543887      4.71304749549183
  Li          1.81489768426588     -1.57019983552453     -2.13351660880679
  Li          0.75174447046483      4.04333310431716      1.11853726853849
  Li          0.24560214400437      3.71480770294289      4.15212560555154
  Li          1.71455572035423      4.61248132432374     -1.81342480845395
  Li          0.34150753054068      0.48914759339296     -4.41928720058039
  Li         -0.33493671880493      3.72090734098032     -3.98285119372194
  Li          5.33348986626634      2.18039932850013      0.90197620383152
  Li          3.51790074475873      0.28787833311821      2.29344560210624
  Li          3.12842902407887      3.25735573834456      3.01522060388677
  Li          6.31334988031962      0.57657736935731     -1.85724342817328
  Li          3.55916166436129      0.32476772941263     -3.47154185588287
  Li          4.21347472244955      2.84737578112144     -1.85247074169897
  Li         -1.20180598673310     -0.61117694877947      1.79663428294590
  Li         -0.94775630479765     -0.67416780927357     -1.64322538397146
  Li         -1.61259004725190      5.14433124115375      1.72249044300150
  Li         -3.31163083953027      0.33148051192698     -0.04434471818135
  Li         -1.00399077431872      4.62666147492367     -1.20769572496646
  Li         -3.37848687548997      3.31003592603063     -0.23022164697134
  Li          2.25485490430511      1.10443631034797      5.03036437643426
  Li          0.17759099272233     -2.90447950284754      0.26393172602803
  Li          2.51884713692312      2.99071098284039     -4.42756058309284
  Li          0.72825852827075      6.77087405527219      0.30083848144307
  Li          5.94147855113110     -1.00382773240478      0.91159867826189
  Li          4.87684685522183     -2.23886031348901     -1.88616567301909
  Li          3.11847012038861     -2.30479564594875      0.73742047744672
  Li          3.52455703227376      4.95388788236933      0.52623595405317
