40
Coordinates from ORCA-job opt E -300.171017276796
  Li          1.27339984808667      0.45516599935422      1.54144783809484
  Li          2.35173144375569      1.53047796548369     -1.02540997138134
  Li          0.06920454439903     -0.08160498714792     -0.79148642100069
  Li          0.15301055245436      2.80222078057779     -0.00814352393157
  Li          3.09135571645027     -0.93352310990966     -0.05934877815090
  Li          2.60500507187843      4.05018203524202      0.52503194162059
  Li         -1.41279602138886      1.30506250550647      1.53759315220199
  Li         -1.74535215760591      1.74261810175765     -1.90850875289115
  Li          2.19744355067643     -1.83032803877199      2.61059203527193
  Li         -0.07646606469176      0.50831475078527      4.16986935783428
  Li          2.03406165716672     -1.60128421306849     -2.53341303738756
  Li          1.05716222618319      5.55333713988717      2.91164110773200
  Li          1.03316421997983      2.84383414170103      2.70470255956291
  Li          2.67154941594454      6.11207368731511     -2.38147146676664
  Li          0.69066487750736      1.12622227369358     -3.38241839660759
  Li          0.97019854077927      3.78090915247108     -2.38621405370555
  Li          3.71066221898882      1.69723531271459      1.45217467042229
  Li          2.99124076655085      0.92573511979151      4.00564769882384
  Li          3.68527041697664      4.03062525777874      3.31912362760368
  Li          5.32367452943978      1.02870673490730     -0.64374160343990
  Li          3.75097260332015      0.79270005712144     -3.22092352488606
  Li          2.44139752606352      3.44570666520711     -4.64521273742376
  Li         -0.92976858373991     -1.42267713071359      2.08184296889569
  Li         -1.23271345172538     -1.29578858171635     -2.91354713780028
  Li         -1.37153194942680      4.43733488658353      1.36314188125324
  Li         -2.77495227787331     -0.53050091687297     -0.14013420022356
  Li         -1.69591604114117      4.58609818422724     -1.67975178777554
  Li         -3.59846532713004      2.50398712160147      0.44817261084085
  Li          1.21696951010804      3.36513439982499      5.37783917391927
  Li          0.63380531515529     -2.65343211177189     -0.14975688491607
  Li         -0.94503680946396      3.38368165450176     -4.54940134356587
  Li          0.69561311140403      5.89071686172026     -0.18468962146194
  Li          5.12835654320423     -0.91101120540811      1.81992945715786
  Li          5.12912412835430     -1.82536807095412     -1.62455749903599
  Li          3.61033544071285     -3.58725053869805      0.39026363993026
  Li          5.56412531778387      3.78992628663043      0.86051593574377
  Li          4.01744284154128      3.60639571241998     -1.86669239310549
  Li          3.69950203511187      6.45534881972697      0.86562346908279
  Li         -1.65277470894278      3.01638457406900      3.86738240298681
  Li         -3.46567057684767      0.35163272243137      3.01728760647848
