42
Coordinates from ORCA-job opt E -315.181327849918
  Li          1.52293926764191      3.26836699398459      1.32262914180308
  Li          2.10513598754842      1.87233333314030     -0.99280945122510
  Li          0.07322013781504      0.48621136556018      0.75434592379461
  Li         -0.57750105854872      3.11033978849902     -0.49538773788162
  Li          2.45894144562950     -0.50932227159531      0.18621052653118
  Li          2.94566633716431      4.39558323613230     -0.87205977091622
  Li         -0.93496785804233      2.37614986552098      2.35865610964541
  Li         -1.98159198394547      1.90577863042649     -3.28881882981834
  Li          1.58315819989090     -2.67597168836065      1.43708292960715
  Li          0.06186424253189     -1.03979595776818      3.22973121033425
  Li          0.87481907094338     -2.18289588181032     -1.64315804681811
  Li          2.49698737828468      5.49514733546843      2.19717886510515
  Li          0.95775441368247      3.54291960112677      4.26502561801747
  Li          1.95336289296655      5.91471814951693     -2.98156945932444
  Li          0.10581561144776      0.46155070614353     -2.00049159043536
  Li          0.53754009068772      3.34422782225346     -2.93207798065423
  Li          3.87742023778688      1.84763968602961      1.09877203762384
  Li          1.70627899354692      1.02009398605077      2.84913308426996
  Li          3.92307075613417      2.84671342469671      3.61164591052291
  Li          5.17861694885964      2.20103637046057     -1.18324318533494
  Li          3.10537941820539     -0.33748934667509     -2.51305857033896
  Li          3.22056261761339      2.68829064136726     -3.39812335467703
  Li         -1.16580738454187     -1.90313950172531      0.30132972800626
  Li         -1.76401787170581     -1.37328231730330     -2.89623201046274
  Li         -0.76231580705109      5.10905909520699      2.21880911824596
  Li         -2.34260570026988      0.81802364323999     -0.61468854765169
  Li         -1.89523323178414      5.00409377745660     -2.05558136331841
  Li         -3.03978785026424      3.48459392146166      0.83599180764830
  Li          2.33405419474407      0.41587703466772      5.39847973779947
  Li          0.25157861592119     -4.72528480022707     -0.32077377136746
  Li          0.72997523542297      0.34058670991679     -4.49510221474788
  Li          0.56585030522547      5.67771965516820     -0.37729700539817
  Li          3.92781079864238     -0.68090734750517      2.69603775119476
  Li          5.12092948575113     -0.61321446882077     -0.15644183696390
  Li          3.39973502233283     -3.25206845813620     -0.69732766446567
  Li          5.09885296825462      4.47609123504181      0.92932724393171
  Li          5.01416988566592      5.22752729159223     -2.31145144346583
  Li          3.40516261593361      7.15151064791465     -0.37789218046606
  Li         -0.69549957543421      1.25982255838271      4.88872067967267
  Li         -2.68603274761076      0.42216614442625      2.39657672472321
  Li         -2.73163202501979      3.48491173795517      4.12634466320998
  Li          6.44533991794295      1.59928765111826      1.78655720404478
