44
Coordinates from ORCA-job opt E -330.191427610324
  Li          1.62961939841964      1.88763476083590      1.18074856276231
  Li          2.69057334656824      1.83195697390848     -1.21489928154855
  Li          1.22614220698494     -0.77927101445694      1.17538727453444
  Li         -0.37302024666783      3.83463551722020      0.34671784332733
  Li          3.91921688167545     -0.35230599982284      0.01785029797659
  Li          2.39542063700911      4.51049965758213      0.31918843569638
  Li         -0.99102910822691      1.21881073647362      2.25513890978610
  Li         -0.84770061392621      1.04455130702085     -0.44847103716144
  Li          1.76888096822815     -3.16440924450055      2.09124887579508
  Li         -0.21123289768648     -1.13110540677916      3.77567133331088
  Li          1.10649776289903     -0.57535844849564     -1.51165444044068
  Li          1.85574295293159      6.39706671514043      2.24841239056512
  Li         -0.07212213631144      4.09556921590957      3.05218115588826
  Li          1.87980323142526      5.01264717869632     -2.47706622966198
  Li          0.42520028093971      0.50055622072439     -4.07693948145016
  Li          0.33891202984932      2.71389545293599     -2.24950011514578
  Li          4.59971830735790      2.44109664684600      0.96967065233655
  Li          3.53488850868654      0.16879998599951      2.76210990189960
  Li          3.01312384742841      3.63802568938839      3.11700336457622
  Li          5.65577984120293      1.40293623794611     -1.59367387125454
  Li          3.52550271276651     -0.56103811338383     -2.92443164273584
  Li          2.92952116843478      2.44882343415690     -3.87544310183085
  Li         -1.45826526132587     -1.51443015870247      1.05975743787081
  Li         -1.72047900887334     -1.03733689762378     -2.15197233343908
  Li         -2.01421274337619      5.88172871487844      1.26405413838308
  Li         -3.45266617488340      0.55380783860940      0.14782992464558
  Li         -1.31890082260308      5.01569743995019     -2.33042884722699
  Li         -2.87744386870324      3.39303214123965     -0.49203640752696
  Li          1.21020336446167      1.48987480019712      4.05252707863025
  Li          0.16287263489323     -3.14837111171026     -0.58886058621810
  Li         -0.08183456706379      3.50333314225696     -4.88153840548968
  Li          0.40095203778071      6.51727697795406     -0.33498927291379
  Li          4.89342004889888     -2.39796812676332      1.63627578102769
  Li          5.99020160220569     -1.77987120863003     -1.15783812946691
  Li          3.11829036062781     -2.86592579642602     -0.73839808256185
  Li          4.97184188327627      5.33077569320783      1.50746711170252
  Li          4.66711689758378      4.18778434379645     -1.35552461315295
  Li          3.38456078277756      7.01510964171879     -0.48799242342852
  Li         -1.57592662627133      1.95367223460190      5.02001605203032
  Li         -3.22555590442345     -0.03002985469189      3.22466104053532
  Li         -2.95370856302937      3.05302390254546      2.38210815444032
  Li          6.54285549435414      0.29573365466530      1.15057299702897
  Li         -2.19780357513287      1.86157641653304     -3.09054531752217
  Li          7.20504292883718      3.35748870904686      0.24560490542705
