46
Coordinates from ORCA-job opt E -345.213146101165
  Li          2.55780859776476      2.10050629821052      1.41738239714010
  Li          1.96227106835546      1.41947489316614     -1.20828682727026
  Li          0.23958146808501      0.15801564890654      0.36657591429257
  Li         -0.13889456576827      3.11321008078925      0.38128422095963
  Li          4.29623151914515     -0.15136464207137     -1.11459111449036
  Li          4.57884127683080      2.39941035462754     -0.53836091115580
  Li         -2.27741693814778      1.71371812904823      1.62397768260202
  Li         -1.67535296522782      1.41202265516324     -1.19781417726253
  Li          2.72357318029483     -0.55673626996182      1.28642937843286
  Li          0.24043830051415      1.48678650675069      2.82400639714694
  Li          1.87641593574070     -1.57538986161925     -1.59737271338428
  Li          2.36638181099272      4.35843110500189      0.06702612309587
  Li          0.01347673617717      4.36583257990611      2.80005530899343
  Li          1.86094241643764      6.00727778131912     -2.05846666915193
  Li          0.00668781958360      0.51879075961950     -3.22538513515335
  Li          0.59630879108038      3.39951268106905     -2.27610795301706
  Li          5.34827374973379      0.55884280012309      1.60305341025225
  Li          3.22490940235548      0.96925659413170      3.88461932702774
  Li          2.62130223004111      3.95473205210490      3.44034152634763
  Li          5.97621756551912      1.25506302414521     -2.87219738118986
  Li          3.03648303440903      0.52978921352827     -3.67060454335656
  Li          3.45818370312140      3.35045781693312     -2.85987339600639
  Li         -1.39589759938738     -1.25921127000477      1.85703851433217
  Li         -1.23573187455128     -1.57453323691169     -1.19915398058277
  Li         -2.83779348298680      4.38070492203068      1.42243204096385
  Li         -3.75058627444919     -0.21396286767164      0.26611892034379
  Li         -1.71391063128934      4.63700997700263     -1.37706438955657
  Li         -4.14798479736222      2.59855000117463     -0.74735377908653
  Li          0.57593632315185      2.06578656577466      5.37380604249584
  Li          1.20963071808630     -2.81004102350678      1.13144464201154
  Li          1.11075108692513      2.85925783629085     -4.90507930950095
  Li          0.11345957205677      6.10413448788829      0.46871048074638
  Li          3.92504849216538     -2.11771846687761      3.15723038777865
  Li          5.00219458573099     -1.92345908673798     -3.00933351360479
  Li          4.43738936073388     -2.61728976487497      0.08559937907191
  Li          5.10162491070782      3.80599047700951      1.80220178926082
  Li          5.00896031949449      5.21182514202195     -0.90510282049595
  Li          3.04424881151757      6.49813246187537      1.49637458678898
  Li         -2.35071263287266      3.14898533436588      4.12870144350351
  Li         -2.09306007656149      0.26562768772038      4.20518309764146
  Li         -4.81136351129190      1.96399911670300      2.45643141631628
  Li          6.96562790499086     -0.72474495179334     -0.76379238071480
  Li         -2.00943499872225      2.78733882923671     -3.71661302076114
  Li          7.25242628767073      2.55419149667213     -0.31319392053509
  Li         -3.33268502191502      0.04353815254064     -2.96021798593809
  Li          0.95419839111900     -1.00675202082071      3.74494149466873
