50
Coordinates from ORCA-job opt E -375.256885623181
  Li          2.38904744396359      1.86012619860113      1.29991116903914
  Li          2.18377447271153      1.73739218439182     -1.50542458126882
  Li         -0.21696639470143      0.34562536193339     -0.12937078490958
  Li         -0.30096415351423      3.04914645522499     -0.06256821153348
  Li          4.76143725776779      0.21687010285761      0.03882995417614
  Li          4.64980574456558      3.01074528359474     -0.37293239263546
  Li         -2.13179111792887      1.61429490592548      1.69280050509111
  Li         -2.67099209197899      1.81356432962918     -1.22457435414004
  Li          2.26508707827491     -0.81820195601763      0.36807152100230
  Li          0.52698213133415      0.19382454650587      2.54346404202944
  Li          1.25960644050265     -1.07538857066263     -2.37885890175389
  Li          2.09343976693800      4.39948529076945      0.37681467385202
  Li          0.17685781525810      3.11305476800396      2.65133244160068
  Li          2.76699217541717      4.60247765885446     -2.30717771250312
  Li         -0.78495662616675      0.84999693879234     -3.00848166731039
  Li         -0.00181423456613      3.61510437929549     -2.69240618469416
  Li          4.99562014161110      2.10042282288611      2.37279926737665
  Li          3.34576562043863     -0.22259594625779      3.12765668248615
  Li          2.76701962538619      3.95805783338835      3.29452832963163
  Li          6.89196656923113      1.46846134607811     -1.46666057867787
  Li          4.19160448947604     -0.15943592383335     -2.59727759486201
  Li          4.77170220745672      2.66383663304293     -3.19520152619726
  Li         -1.82884219587539     -1.24778121815949      2.09837137937498
  Li         -2.09266493700239     -1.24715250576417     -1.21502475328595
  Li         -1.57865204586374      4.99151869010117      1.73558805029249
  Li         -4.33609958754886      0.15462672549557      0.23646150320907
  Li         -2.67086416027923      4.57479656216292     -1.10825908516496
  Li         -4.27216007953984      3.15611829675105      1.15983914412941
  Li          1.57710306965903      1.65110647957071      4.77273632134734
  Li          0.23271921810448     -2.72155046146784     -0.09728926027195
  Li          1.98221993005344      1.69532627779294     -4.28338089305041
  Li          0.14873062534567      6.00744010350964     -0.79983295558745
  Li          4.87408059197523     -2.16841092877192      1.49017236573728
  Li          6.50198475050767     -1.65639187580895     -1.13441420551719
  Li          3.41990267556194     -2.86977277143596     -0.97356201920688
  Li          4.70240974607905      5.18928535800848      1.36813028177907
  Li          5.94697067750983      5.11615902820672     -1.56560349444069
  Li          3.12913829578624      6.95488602318673     -0.40206381913580
  Li         -1.41129070451175      1.28632916823241      4.45538037675780
  Li         -4.24359212741841      0.66114360323363      3.30985875801427
  Li         -3.01118194824186      3.61563772786200      3.83963023992750
  Li          7.08961258858123      0.08336082125735      1.41432978117173
  Li         -2.85705271241754      3.07163301543709     -3.75925455976071
  Li          7.21132133219739      3.43400837315163      0.80657881132404
  Li         -3.95050864447901      0.18195015028996     -3.10221053333528
  Li          0.13141373102750     -1.30866429672048      4.80556725445832
  Li         -5.26906964340128      2.60485550587995     -1.72711784779859
  Li          1.70054044382620     -2.61541801583372      2.40596058995850
  Li         -0.11538706076528      4.61397607030124      4.82924085601819
  Li          1.21999380965240      6.20411945052668      2.16489361725661
