6
Coordinates from ORCA-job opt E -44.918945694221
  Li          1.75499999399380      1.75499999384645      1.33338934156118
  Li          1.75499999434539      1.75499999351270     -1.33338934261980
  Li         -0.02714891081982     -0.02714896617982      0.00000000226077
  Li         -0.02714889880053      3.53714897744609     -0.00000000172744
  Li          3.53714892159607     -0.02714894814800     -0.00000000113298
  Li          3.53714889968509      3.53714894952257      0.00000000165826
