66
Coordinates from ORCA-job opt E -1612.977974476740
  C          -4.91803821743192      0.74046696786845      0.02021978682268
  C          -3.69456272727745      1.42212290929599      0.01253830063532
  C          -2.45982088580597      0.74356070693996      0.00477896356780
  C          -2.45837127248133     -0.72292466986050      0.00478683516370
  C          -3.69176264075274     -1.40394425512029      0.01256318321736
  C          -4.91659409062116     -0.72472193083822      0.02023915818567
  C          -1.23262084264433      1.42491335306596     -0.00296446803791
  C          -1.22981021736762     -1.40182712307270     -0.00296012802223
  C           0.00033841175783     -0.72067003128934     -0.01074730390123
  C          -0.00111074294138      0.74622311922496     -0.01074357453638
  C           1.22903082978004      1.42738339971520     -0.01852803687774
  H           1.22802500923749      2.52071437800717     -0.01851363519358
  C           2.45759110517275      0.74848236017304     -0.02631299660755
  C           2.45904807146526     -0.71800415606494     -0.02632719011189
  C           1.23184859037414     -1.39936578983304     -0.01854823095701
  H          -1.23384117435411      2.51824408379159     -0.00296538259222
  H          -3.69603011171601      2.51546598009676      0.01252858873668
  H          -3.69102696741527     -2.49728565263129      0.01257556679293
  H          -1.22881518404426     -2.49515515958895     -0.00295410513805
  H           1.23307059033260     -2.49269351121993     -0.01854542093892
  C           3.69097555144704      1.42951122086701     -0.03412130265464
  C           3.69380173695730     -1.39655779875175     -0.03415737521461
  C           4.91727203714210     -0.71488686585433     -0.04191860094595
  C           4.91581323313192      0.75030164776984     -0.04189675411580
  C           6.15396110404479      1.43128640345353     -0.04972796615916
  H           6.15364220919640      2.52466624258171     -0.04971906195869
  C           7.37277861696784      0.75143841288068     -0.05743787212095
  C           7.37422896054968     -0.71106282039634     -0.05747045404676
  C           6.15679896408784     -1.39337775500976     -0.04977557200497
  H           3.69022653335603      2.52285468323451     -0.03409180567982
  H           3.69528624394838     -2.48989994245027     -0.03415356008072
  H           6.15872159301066     -2.48675600450040     -0.04980281667694
  C          -6.15476005027952     -1.40568436713877      0.02800340505895
  C          -7.37355614967624     -0.72580928653991      0.03559956832591
  C          -7.37499466739100      0.73669107441422      0.03557181948479
  C          -6.15754454195888      1.41897552222111      0.02795857634456
  H          -8.62035211328154     -2.50014656396364      0.04340368667475
  H          -6.15446282787690     -2.49906514301736      0.02803079857640
  C          -8.62030282025598     -1.40659953783068      0.04337550568503
  C          -8.62304725923364      1.41506618264855      0.04331202300753
  H          -6.15944246191934      2.51235410627236      0.02794798936984
  C          -9.83013528393670      0.73279297627801      0.05084275970793
  C          -9.82873379255736     -0.72662934721475      0.05088737580427
  H          -8.62525470290771      2.50861422796680      0.04329097575671
  C           9.82941545860490     -0.70691644996699     -0.07301403688450
  C           9.82789949134392      0.75250339893984     -0.07293479491642
  H           8.62462476274163     -2.48288764884970     -0.06539489409654
  C           8.62234533956942     -1.38934459551793     -0.06535577663446
  C           8.61945850327862      1.43232146340405     -0.06525915340711
  H           8.61944117672416      2.52587146918308     -0.06522839058697
  C         -11.09391945926880     -1.41086815620837      0.05876918871644
  C         -12.27109384238084     -0.71750621471574      0.06599506324664
  C         -12.27247531811033      0.71887629550105      0.06594198707787
  C         -11.09667014778587      1.41453324289876      0.05866402933281
  H         -11.09612041670860      2.50780048226980      0.05865955794660
  H         -13.22631639765144      1.25206403137059      0.07183400858450
  H         -11.09121338906308     -2.50412839805906      0.05885683217951
  H         -13.22387802577050     -1.25257403427059      0.07191914806742
  C          11.09592845947871     -1.38866620371887     -0.08106147028562
  C          12.27174496009273     -0.69298729840133     -0.08834057758077
  C          12.27026290957443      0.74339063779734     -0.08821218530346
  C          11.09309535753511      1.43672793099459     -0.08083075911348
  H          11.09539384776491     -2.48192859882138     -0.08126234675951
  H          13.22557028557426     -1.22619179263759     -0.09438476360820
  H          11.09036706035384      2.52999293349163     -0.08081242595950
  H          13.22306173827110      1.27844525873660     -0.09413949236037
