42
Coordinates from ORCA-job opt E -999.196050902143
  C           2.45557110468059     -0.72978567618466     -0.00000649938584
  C           1.23274816423926     -1.41082486728265     -0.00001092241542
  C          -0.00003450563000     -0.73040075104558     -0.00001239501232
  C          -0.00003504414238      0.73040599075901     -0.00001327790180
  C           1.23274861694010      1.41082750154798     -0.00001327304831
  C           2.45557174219578      0.72978677189747     -0.00000693995928
  C          -1.23278433502174     -1.41082466249269     -0.00001825540061
  C          -1.23278754236795      1.41082873837899     -0.00001004353147
  C          -2.45563595776854      0.72978467168951     -0.00000845663056
  C          -2.45563412450849     -0.72978200547468     -0.00000951308243
  C          -3.69977354557206     -1.40983647076089     -0.00001072898926
  H          -3.70091959614850     -2.50339688699448     -0.00001412172627
  C          -4.90987682882336     -0.72858509518750     -0.00000919885291
  C          -4.90987770168431      0.72858394047722     -0.00000430233118
  C          -3.69977643013627      1.40983615469564     -0.00000572637338
  H          -1.23328019337739     -2.50424938835576     -0.00002345060597
  H           1.23316205146237     -2.50424973951264     -0.00000895485326
  H           1.23316343116348      2.50425003161935     -0.00001397003624
  H          -1.23328761395991      2.50425025346098     -0.00000968128757
  H          -3.70092679568718      2.50339685055837     -0.00000474642604
  C          -6.17437908828114     -1.41216296583234     -0.00001288947035
  C          -6.17437992756737      1.41216139372593      0.00000199600039
  C          -7.35167941250234      0.71748204803780      0.00000146504835
  C          -7.35167843248430     -0.71748349316361     -0.00000791124946
  H          -6.17296738485603     -2.50542572104053     -0.00001873927704
  H          -6.17296644388771      2.50542377653750      0.00000722891789
  C           3.69974235497226      1.40984146754462     -0.00000250213282
  C           4.90982232640630      0.72859206620178      0.00000673889975
  C           4.90982235971698     -0.72859188877469      0.00001012427393
  C           3.69974074545605     -1.40983969859762      0.00000051384196
  H           6.17287318361946      2.50543500544058      0.00000303199370
  H           3.70081442903146      2.50340319022188     -0.00000554779912
  C           6.17434368740923      1.41217218092904      0.00001057980685
  C           6.17434255618915     -1.41217405463410      0.00002894772537
  H           3.70081125104771     -2.50340197967921      0.00000455134270
  C           7.35162294223184     -0.71749507103970      0.00003706514069
  C           7.35162254332556      0.71749172337571      0.00002715891605
  H           6.17286954372834     -2.50543727196181      0.00003790773695
  H           8.30477360586687     -1.25202340832455      0.00005233733326
  H           8.30477362525435      1.25201923066210      0.00003348045679
  H          -8.30478251223532     -1.25209694583657     -0.00000816451266
  H          -8.30478384829485      1.25209505441480      0.00000708485695
