36
Coordinates from ORCA-job opt E -845.750076596936
  C           0.00000277843505      3.68069206250160      0.72777608558812
  C          -0.00000644714915      3.68069325163603     -0.72777649782807
  C           0.00001326519877      4.94412142434654      1.41154377027216
  C           0.00000047343095      2.46858221246493      1.40899747759713
  C          -0.00000529428666      4.94412294384169     -1.41154381048963
  C          -0.00001437651278      2.46858412562974     -1.40899809532047
  C           0.00000566084052      6.12228614072309     -0.71698692799176
  C           0.00001608795474      6.12228477064045      0.71698740151099
  C          -0.00000596715319      1.22713518692148      0.72857148252250
  C          -0.00001176579152      1.22713631537618     -0.72857264478352
  C          -0.00000573470218     -0.00000068475758      1.40960635406481
  C          -0.00001280912937      0.00000075645635     -1.40960852792584
  C          -0.00000825807159     -1.22713591868093      0.72857075351200
  C          -0.00000813429549     -1.22713579346373     -0.72857270930678
  C          -0.00001191679939     -2.46858328937889      1.40899708802673
  C           0.00000018652922     -2.46858370829291     -1.40899703435320
  C          -0.00000767174958     -3.68069270553184      0.72777629338700
  C           0.00000164667878     -3.68069301595312     -0.72777548838334
  C          -0.00000872395884     -4.94412232622377      1.41154418591269
  C           0.00001660648168     -4.94412286143643     -1.41154334495545
  C           0.00000440613482     -6.12228568110619      0.71698799906075
  C           0.00001787579246     -6.12228601581113     -0.71698653874885
  H           0.00002001091972      4.94232666073110      2.50484137067275
  H           0.00000470790466      2.46916257041096      2.50260720354097
  H          -0.00001334916617      4.94232839837099     -2.50484167875840
  H          -0.00002067928816      2.46916598768711     -2.50260733714559
  H           0.00000751651259      7.07536559870488     -1.25165505294221
  H           0.00002443767081      7.07536274328611      1.25165732824356
  H          -0.00000405181043     -0.00000114449556      2.50310689184094
  H          -0.00001625764058      0.00000201383925     -2.50310904631816
  H          -0.00001605568013     -2.46916218982204      2.50260711883776
  H           0.00000603711306     -2.46916543516128     -2.50260688648450
  H          -0.00002109113417     -4.94232648319236      2.50484189782090
  H           0.00002590164395     -4.94232703898945     -2.50484153692441
  H           0.00000271231496     -7.07536377688109      1.25165807510482
  H           0.00002827276264     -7.07536509439017     -1.25165561885639
