28
Coordinates from ORCA-job scan E -541.817462411736
  C           0.29794417243445      1.65321009775327      0.57459579207070
  C           0.74429660994935      0.46020073026033      0.02441707853799
  C          -0.84104132143577      2.27210433818970      0.07095421221213
  C           0.06891808886018     -0.13668757892920     -1.04006890527135
  C          -1.52893132889983      1.68420100041465     -0.98231675088640
  C          -1.07432461406464      0.49029691265770     -1.52997173886356
  H          -1.61303916545274      0.04006575886885     -2.35574895877634
  C           0.58300384290185     -1.40354289614244     -1.66977036289594
  H           0.84050935007121      2.10230162039310      1.39693481681970
  H           1.63706620505381     -0.00977495502976      0.41861796685051
  H          -1.18946483612563      3.20332132279926      0.49890638125323
  H          -2.41979068360510      2.15475842340468     -1.37909071820853
  C           3.28940748976788      2.79965085728047     -2.96867798979756
  C           2.14308107955733      2.40459360411042     -3.64979966623913
  C           3.97378989098149      1.87614556092125     -2.18957574650850
  H           3.64639679987783      3.81849322894535     -3.04764654572749
  C           1.68632010952161      1.09850477599185     -3.54687460168650
  C           3.50857464483131      0.57018874640712     -2.08902517096217
  C           2.35835319087905      0.16273306007403     -2.76056369283227
  H           1.60314108173281      3.11686345952650     -4.26089512361967
  H           4.87023564502139      2.17131373607066     -1.65877285159588
  H           0.78772421020295      0.80242358962945     -4.07410194346044
  H           4.04446947920985     -0.14399986711122     -1.47450048604353
  C           1.83345559770421     -1.23994579670718     -2.60946555610306
  H          -0.22478462097558     -1.86685263438975     -2.23720221906779
  H           0.84440369883490     -2.10878063658068     -0.87835441049913
  H           2.63685359423417     -1.87751419237763     -2.23914031802071
  H           1.56823178893142     -1.62427226643101     -3.59641249067791
