28
Coordinates from ORCA-job scan E -541.818251933130
  C           0.28015883360559      1.73860430663460      0.48498280747402
  C           0.75738413703611      0.53446844829349     -0.01292523078922
  C          -0.89245022240965      2.28862467836999     -0.02071889070154
  C           0.08010646931746     -0.14097892902678     -1.02743864960335
  C          -1.58382914511794      1.62082633977969     -1.02302634358054
  C          -1.09822354427252      0.41683467724436     -1.51891528463220
  H          -1.63959771087916     -0.09597619831291     -2.30580569622437
  C           0.63097719533271     -1.41309494310007     -1.61317553030430
  H           0.82532062230813      2.25019712818737      1.26818560029306
  H           1.67688379884768      0.11963945971575      0.38138331442325
  H          -1.26504640747922      3.22825274862779      0.36670475758542
  H          -2.50159866556233      2.03669357035047     -1.41975774658388
  C           3.34105899978728      2.78298445046754     -2.87860282706555
  C           2.15964474563638      2.45379651987097     -3.53391052674744
  C           4.02996319993295      1.80204550860252     -2.17737139031133
  H           3.72223047887701      3.79540879578506     -2.91792581876833
  C           1.67168692424620      1.15588233333518     -3.48260526901624
  C           3.53341585300750      0.50493802177348     -2.12756946734204
  C           2.34672774116808      0.16344642069054     -2.77279183736924
  H           1.61627791071302      3.21107233379635     -4.08494415459747
  H           4.95423098003570      2.04567944458307     -1.66844760669708
  H           0.74534930362170      0.91184825329952     -3.98770579895575
  H           4.07266873082586     -0.25470942204106     -1.57316163310555
  C           1.78574414627895     -1.22894215565959     -2.66404595347884
  H          -0.17753483842571     -1.98036388429565     -2.07516853362211
  H           1.01392171628687     -2.02939177488871     -0.79696360183719
  H           2.58951717013960     -1.92705403047888     -2.42869638704317
  H           1.39981157714153     -1.52073210160430     -3.64313230139864
