28
Coordinates from ORCA-job scan E -541.819658492236
  C          -1.24444374547329      2.12806155903124      0.14121526809854
  C          -0.10293517021989      1.42425682049140     -0.22341310462285
  C          -2.50105584454615      1.56442380193446     -0.04519665609756
  C          -0.19471043823985      0.14871543592510     -0.78110322209741
  C          -2.60589010069006      0.29232452604592     -0.59620903053135
  C          -1.46175868174097     -0.40656964147667     -0.96001137424425
  H          -1.55158960519931     -1.39884480140989     -1.38716768280324
  C           1.03912737283027     -0.58378755155659     -1.23399573566839
  H          -1.15210513330756      3.11573339852321      0.57552329879373
  H           0.87432976157921      1.86763815577314     -0.07424863750752
  H          -3.39133403269918      2.10931421978207      0.24160378434627
  H          -3.58022192405572     -0.15813764857667     -0.73895587305352
  C           4.94346292800867      2.08456539713672     -3.10528347840016
  C           3.69140711107916      2.68734589957169     -3.08536812165591
  C           5.03748813175824      0.69960117021656     -3.02875165301540
  H           5.83847196806243      2.68812569630222     -3.18540625272568
  C           2.54385228500223      1.90954598684993     -2.98720580779237
  C           3.88737837287450     -0.07318577337284     -2.92940309687229
  C           2.62472893835294      0.51928914183206     -2.90523081456635
  H           3.60719873445903      3.76496920728830     -3.15083032705832
  H           6.00810782666164      0.21997864131573     -3.05081391151587
  H           1.57042156685546      2.38521827517579     -2.97462327735839
  H           3.96940240392417     -1.15265247167625     -2.87246006401237
  C           1.38429191077290     -0.31502604150017     -2.73436260835180
  H           0.88876680935016     -1.65555214837685     -1.09055470526968
  H           1.89023900535594     -0.29950625762984     -0.61468009845154
  H           1.52580623428729     -1.27062753185496     -3.24284636705249
  H           0.53636331495762      0.17478253423507     -3.21377045051364
