28
Coordinates from ORCA-job scan E -541.818975679950
  C          -1.45268218125515      2.10500441778881      0.13879373781933
  C          -0.25421664575833      1.49701195098114     -0.21532846178622
  C          -2.65541805885339      1.43039084369819     -0.03421646299549
  C          -0.23419925678901      0.20813489264895     -0.74846961724595
  C          -2.64888972874583      0.14382517254678     -0.56082442440150
  C          -1.44806684215067     -0.45915556440830     -0.91353089241940
  H          -1.45082437474060     -1.46363040941037     -1.32103956168680
  C           1.05964329861881     -0.42096873640500     -1.18888145403354
  H          -1.44670245641892      3.10488732389561      0.55454614201764
  H           0.68056807345855      2.02682934136609     -0.07435442359545
  H          -3.58970811906702      1.90092842292206      0.24393465762332
  H          -3.58017384253164     -0.39263647268373     -0.69301996231295
  C           5.08942188455125      1.96218351280200     -3.18193420764983
  C           3.89043829372075      2.65800608251477     -3.08010786471088
  C           5.07900732873090      0.57253191545381     -3.15062641791727
  H           6.02359554571711      2.49811119107391     -3.29051402809073
  C           2.69232475258813      1.96733135616226     -2.94544969547531
  C           3.87815054308829     -0.11322824756253     -3.01521121344186
  C           2.66850968019321      0.57278463119118     -2.90859508262141
  H           3.88731343461401      3.74044496085403     -3.11064486047483
  H           6.00712173355269      0.02129187033728     -3.23615841476559
  H           1.76023901411261      2.51507396563151     -2.87032019338734
  H           3.87807183249297     -1.19702091131831     -2.99463667654801
  C           1.37453249549165     -0.16561188640098     -2.69942219087332
  H           1.02171511372858     -1.49630399445951     -1.00570968195132
  H           1.87920543970751     -0.02965318583329     -0.58541714119629
  H           1.41047382962306     -1.12044912822920     -3.22682734467759
  H           0.55534921232039      0.40388668484270     -3.13958426320122
