28
Coordinates from ORCA-job scan E -541.820048682278
  C          -1.83648283696385      2.03286059307578      0.05827290913651
  C          -0.55502131157914      1.62807193929265     -0.29232020817895
  C          -2.89503000925011      1.13390811620137     -0.00821336599470
  C          -0.30533590343655      0.32207927540123     -0.71487727276678
  C          -2.65976858048226     -0.17072859167694     -0.42462328030286
  C          -1.37514356757137     -0.57017332732797     -0.77375897134647
  H          -1.19813283947492     -1.59061090505338     -1.09366865982590
  C           1.07667548250412     -0.08948629267259     -1.14531709975025
  H          -2.00854209955973      3.04958279052016      0.38874240498937
  H           0.26690888042571      2.33241126367517     -0.23406882921242
  H          -3.89396844110938      1.44676305059508      0.26725769263350
  H          -3.47656754851222     -0.87989129817304     -0.47427918510062
  C           5.33676297165200      1.69111314158991     -3.28260802528905
  C           4.28489927575330      2.56857498085323     -3.04517789910010
  C           5.08914613674620      0.32479189649602     -3.33670268192364
  H           6.34011714182008      2.06981606093448     -3.42927575206903
  C           2.99770863434518      2.08027410325295     -2.86088698001858
  C           3.79902858366627     -0.15788444805926     -3.15209991728801
  C           2.73557120370218      0.71092891091427     -2.90983641820619
  H           4.46640602339095      3.63546682751394     -3.00848981510979
  H           5.90079234139711     -0.36632092218663     -3.52678274571755
  H           2.18118650274252      2.77020141767483     -2.68107968908117
  H           3.61275718225122     -1.22466604129571     -3.19975732632002
  C           1.34748628960359      0.18969392038846     -2.65307453820701
  H           1.24363124204025     -1.14647435374117     -0.93039978641182
  H           1.80823817336959      0.46681688503578     -0.55644235121018
  H           1.16697814556548     -0.71698990459424     -3.23349387323505
  H           0.62449892696378      0.92987091136553     -3.00058833509311
