28
Coordinates from ORCA-job scan E -541.821398920115
  C          -2.00421688252520      1.97034095509023      0.04720736918309
  C          -0.69082534040261      1.67395643194151     -0.29342780811457
  C          -2.97974787601451      0.98125337471086     -0.00818794531038
  C          -0.32595980679197      0.38859911782726     -0.69427540744605
  C          -2.62966230162625     -0.30391702090431     -0.40385211216971
  C          -1.31353283706313     -0.59449927888534     -0.74293685407004
  H          -1.04656250220761     -1.60019175030115     -1.04676270891978
  C           1.08874789301966      0.09207032920438     -1.11227238723447
  H          -2.26601889781630      2.97314443210309      0.36086060766723
  H           0.06561118934407      2.44891234968583     -0.24428351402508
  H          -4.00336771671295      1.20970903004636      0.25952239241465
  H          -3.38116608920636     -1.08240782994337     -0.44519899854151
  C           5.41945798895701      1.54750919340141     -3.33722095321782
  C           4.45138663657866      2.50454802939553     -3.05490980347766
  C           5.05765634694385      0.20762396234059     -3.40634414490838
  H           6.44640885125653      1.84455894865577     -3.50695149577281
  C           3.13357492299789      2.12132327388238     -2.84119205518660
  C           3.73732946279428     -0.16952084133214     -3.19229247387330
  C           2.75703164816044      0.77980348304823     -2.90544199313232
  H           4.72228961168270      3.55181912861751     -3.00610936863873
  H           5.80334543993781     -0.54473179745489     -3.63088553293319
  H           2.38293665006862      2.87325903929314     -2.62610809193790
  H           3.46110473200501     -1.21605155899282     -3.25164497232538
  C           1.33789094973950      0.36965439813613     -2.61883779138499
  H           1.35166942551722     -0.94215962641335     -0.88139991286126
  H           1.76685325330349      0.72250424184501     -0.53318997208249
  H           1.06408838790243     -0.51032376399818     -3.20439122202672
  H           0.66847686015772      1.17321374900025     -2.93302284967373
