28
Coordinates from ORCA-job scan E -541.823792846447
  C          -2.28590171005534      1.81090692466593      0.02879979965603
  C          -0.93390593837010      1.73933973590784     -0.28196071526737
  C          -3.07702892423015      0.66951739393619     -0.03263235564605
  C          -0.34689996482007      0.53135817404341     -0.65795999629758
  C          -2.50466054338518     -0.54109732123187     -0.40442048943560
  C          -1.15158360855036     -0.60618117121008     -0.71368558402668
  H          -0.71049868437292     -1.55462196666887     -0.99849813240553
  C           1.10604439155897      0.47076640174287     -1.04358754446657
  H          -2.72155094465241      2.75750631281293      0.32319086440034
  H          -0.32189473685213      2.63254014459761     -0.22773924874965
  H          -4.13019281133698      0.72243888292213      0.21175888030864
  H          -3.11151748053908     -1.43672771014777     -0.45001160477949
  C           5.51284620974397      1.24705874816737     -3.42705327288112
  C           4.73133596109141      2.34609608687244     -3.08999347089323
  C           4.92948472800772     -0.01245680869138     -3.49700455742771
  H           6.56715704153143      1.37215060922444     -3.63795551024692
  C           3.37781588099465      2.18320543206320     -2.82313582725566
  C           3.57500756889902     -0.16869936304048     -3.22949406731338
  C           2.77985700921915      0.92493578199885     -2.88839040126351
  H           5.17552747151775      3.33227321538730     -3.03866076382935
  H           5.52895275051653     -0.87377817007112     -3.76398330586156
  H           2.77316176398883      3.04506576046400     -2.56455913076502
  H           3.12544243496722     -1.15326734828956     -3.29026962979595
  C           1.32539379650809      0.74694777285904     -2.54693355639552
  H           1.52825113913425     -0.50538529106647     -0.79417615488208
  H           1.66897922994548      1.21167376328166     -0.47081534008086
  H           0.89306612767798     -0.07124387371892     -3.12760097769532
  H           0.77211184186223      1.64967788318923     -2.81677790670324
