28
Coordinates from ORCA-job scan E -541.824150001775
  C          -2.39919943088060      1.71706191011659      0.01191878906949
  C          -1.04129555182246      1.75906635591894     -0.27861097411328
  C          -3.09012796981924      0.51305614667294     -0.05831268869316
  C          -0.34919815858893      0.60441730492629     -0.64292073333550
  C          -2.41223386097939     -0.64559240682206     -0.41864549227358
  C          -1.05424382197785     -0.59696142349273     -0.70808245344601
  H          -0.53080979766304     -1.50520552148013     -0.98436973210880
  C           1.10925817633009      0.66311308600446     -1.00782885261021
  H          -2.91744717711208      2.62401317248104      0.29717276800233
  H          -0.50747135302687      2.70064900032959     -0.21755074089770
  H          -4.14752908431915      0.47727689443752      0.17040923348774
  H          -2.94078740629918     -1.58922359509664     -0.47058879387046
  C           5.52400868225273      1.09211757996580     -3.45994079842740
  C           4.84436725794105      2.25202517170752     -3.10716035571647
  C           4.83485247703697     -0.11336447062362     -3.52250585226350
  H           6.58138281590088      1.12797270823678     -3.68877129547331
  C           3.48637730147080      2.20324495782666     -2.81757390645708
  C           3.47701205201617     -0.15551003617747     -3.23187420812389
  C           2.78314028583000      1.00046264427636     -2.87505384619470
  H           5.37149776546148      3.19676433189075     -3.06122745391484
  H           5.35448806741270     -1.02135305196872     -3.80187617782568
  H           2.96155309104382      3.11245867419797     -2.54719818353087
  H           2.94461777732523     -1.09827749692211     -3.28696208636233
  C           1.32469001923547      0.94176116520327     -2.51011539315892
  H           1.59913740720740     -0.27933734944438     -0.75170277057599
  H           1.60974042313336      1.44424692964873     -0.43053588990450
  H           0.82404501214863      0.16080022543059     -3.08752294706782
  H           0.83497500074201      1.88431709275601     -2.76611916421349
