28
Coordinates from ORCA-job scan E -541.823574384967
  C           0.08897491302099      1.92374014309230      0.32568913480700
  C           0.71716629092401      0.75298917385787     -0.07704495235262
  C          -1.17609320805066      2.23936679312095     -0.15566011446558
  C           0.09757195503349     -0.12198520080978     -0.96734419395603
  C          -1.80872258572605      1.37199585547529     -1.03810736070478
  C          -1.17430237751533      0.20223969698300     -1.43736092428055
  H          -1.67179175512691     -0.46903174463837     -2.12837436636519
  C           0.80779088192471     -1.35054280693236     -1.46757979820716
  H           0.59005013664751      2.59285589449894      1.01374104077628
  H           1.70947800860193      0.52232579068211      0.28986677982283
  H          -1.66653393773617      3.15221676456638      0.15738008308107
  H          -2.79720264454253      1.60508640855875     -1.41385780878358
  C           3.62417748784535      2.68671376895674     -2.76808113847315
  C           2.35732082412766      2.56808863285493     -3.32730513259045
  C           4.24816347443137      1.56201421101676     -2.24184169919983
  H           4.12270832905662      3.64734262525575     -2.74579509374950
  C           1.71886897808626      1.33558926733693     -3.35478184779572
  C           3.60351258798383      0.33172231309710     -2.27218052518412
  C           2.32978801906710      0.20107348350845     -2.82391661384888
  H           1.86286870165821      3.43847411741435     -3.73982116817856
  H           5.23790887526062      1.64208139027045     -1.80986705922378
  H           0.72510751944192      1.25486461014437     -3.77710666807598
  H           4.09418963334832     -0.54166092480301     -1.85740259868232
  C           1.60880953720499     -1.11887106446236     -2.77986810039728
  H           0.09693287526077     -2.16287024044192     -1.63175631889785
  H           1.50359295616009     -1.68926419721543     -0.69590131094291
  H           2.31287720673331     -1.94337405358071     -2.90896668076354
  H           0.91158731687846     -1.16318070780766     -3.62030556336747
