28
Coordinates from ORCA-job scan E -541.825033178201
  C          -0.04454249101393      1.98040045531696      0.28381961468984
  C           0.65691054594368      0.84649416353009     -0.10449767498792
  C          -1.34310682182759      2.18656456097748     -0.16614947813627
  C           0.07717576776681     -0.10036861215001     -0.94679765260486
  C          -1.93489200846442      1.24797772873589     -1.00345535959819
  C          -1.22792921039691      0.11554370345670     -1.38777692824353
  H          -1.69537471751269     -0.61240257023796     -2.04145410102456
  C           0.86072422637994     -1.29099691704615     -1.42933295892190
  H           0.42559070962247      2.70610633990216      0.93543566818976
  H           1.67463962565798      0.70114041946577      0.23596871997937
  H          -1.89110822942233      3.06994427370764      0.13589014099234
  H          -2.94847966867437      1.39625043524216     -1.35460396505998
  C           3.79034980580312      2.63235631981544     -2.77871415832875
  C           2.48878136445616      2.60593019330247     -3.26504561031594
  C           4.37512532218697      1.45640975988695     -2.32336159783078
  H           4.34600029647698      3.56117214976406     -2.75775718460032
  C           1.77752989297815      1.41349854400519     -3.29176397303962
  C           3.65821880624224      0.26681171172752     -2.35303039250647
  C           2.35023232624462      0.22806899838531     -2.83472257593452
  H           2.02400731613477      3.51673543149158     -3.62100143096330
  H           5.39086905788457      1.46496435765395     -1.94808132705614
  H           0.75783216458502      1.40398124359664     -3.65628694565995
  H           4.12020198324065     -0.64681448474859     -1.99582993347519
  C           1.55732572785382     -1.05012748438807     -2.79296930278135
  H           0.20811949210219     -2.16220427777483     -1.52201041813833
  H           1.62421261029322     -1.54068043060886     -0.68857306777540
  H           2.20359925113416     -1.90419091544070     -3.00826715074778
  H           0.79278685432462     -1.02256509756894     -3.57318095611995
