28
Coordinates from ORCA-job scan E -541.825446544069
  C          -0.39605582187394      2.08172910251975      0.20520236793939
  C           0.46439101025793      1.05628221437409     -0.16732808520340
  C          -1.73827724247149      2.03032842166726     -0.15033473833933
  C           0.00173443778891     -0.03632579954616     -0.89918476263413
  C          -2.21309315606086      0.94505195649127     -0.87845778931090
  C          -1.34819736925882     -0.07686524234261     -1.24811779802437
  H          -1.72579677932811     -0.92081096315192     -1.81457865288305
  C           0.94400547227551     -1.11375055200001     -1.36347391862731
  H          -0.01682421166824      2.92239008521446      0.77255666406266
  H           1.51186926467009      1.10818735689700      0.10244782125418
  H          -2.41065350978324      2.82734335626657      0.14046983836958
  H          -3.25867539457524      0.89289901092940     -1.15530290607082
  C           4.18378225551800      2.48930152164612     -2.84668739987539
  C           2.84147213205912      2.67184413622950     -3.15577994773931
  C           4.65014878889291      1.21461973638491     -2.54486899213350
  H           4.86274810563480      3.33244812822528     -2.84458600134515
  C           1.97261396485333      1.58754778087788     -3.16031447580733
  C           3.77677483519480      0.13470105934603     -2.55058002033116
  C           2.42670318266856      0.30484952282315     -2.85725896839070
  H           2.46857713726131      3.66041291140869     -3.39257338458102
  H           5.69569688756065      1.06104238178636     -2.30859243125927
  H           0.92527483371982      1.73829289850871     -3.39060652125437
  H           4.14806746954597     -0.85667343788033     -2.31600923460387
  C           1.47563526300494     -0.85948669097751     -2.79457095919818
  H           0.42909386768927     -2.07783065355973     -1.35280155799357
  H           1.79217209406563     -1.19345652247766     -0.68049170384566
  H           1.98339146959546     -1.76375471330309     -3.13975839017546
  H           0.62822101276284     -0.69031700635755     -3.46196805199831
