28
Coordinates from ORCA-job scan E -541.822799416474
  C          -0.81887532428365      2.13563284889885      0.15890806891737
  C           0.19412191115523      1.25785652727660     -0.20873022578348
  C          -2.14633648257571      1.81712976654263     -0.10002316786264
  C          -0.09914749051826      0.05006987344752     -0.84170406243272
  C          -2.45232028507053      0.61423375594280     -0.72685540920597
  C          -1.43611576659494     -0.25852827641051     -1.09366845994707
  H          -1.68306216952463     -1.19552948871915     -1.58002811043338
  C           0.99970537615930     -0.87087231324827     -1.29909406864646
  H          -0.57062013278399      3.06814300605180      0.65020874240236
  H           1.22717270536686      1.51336822995528     -0.00773660403980
  H          -2.93711000579714      2.49775197230623      0.18853752814041
  H          -3.48423356814079      0.35365228334254     -0.92645044741784
  C           4.59001780536041      2.30450977511347     -2.96775824357581
  C           3.26501021039384      2.70347379370901     -3.09412733391232
  C           4.88641903251299      0.95619237274998     -2.80142820438570
  H           5.38623452096315      3.03701346447576     -3.00355165792433
  C           2.24508828961878      1.76023291560473     -3.05215549023381
  C           3.86333296810206      0.01788226273932     -2.75876327371388
  C           2.52885150806375      0.40522688165956     -2.88223100841771
  H           3.02417552609701      3.75067834562423     -3.22805990800149
  H           5.91628687781688      0.63460688288372     -2.70894399344034
  H           1.21379437881235      2.07713872513177     -3.14662210566159
  H           4.10281423705035     -1.03176428804859     -2.63082842074602
  C           1.42237432042737     -0.60867835699862     -2.77148341248730
  H           0.64961634663072     -1.90267876182236     -1.21774610838434
  H           1.87321737847276     -0.77702505679826     -0.65260917407371
  H           1.76399003182647     -1.55068410544079     -3.20703281743833
  H           0.55039780045925     -0.28903303596942     -3.34357263129388
